Uncertainty/data/case-de/case_de_125.py
from numpy import array
def case_de_125():
	ppc = {"version": '2'}
	ppc["baseMVA"] = 100.0
	ppc["bus"] = array([
		[75,     2,   96.31,    19.26,    0,      0,      5,   1.0,      0,        380.0,    0,   1.1,      0.9,      0.6, 10   ],
		[502,    2,   213.05,   42.61,    0,      0,      5,   1.0,      0,        220.0,    0,   1.1,      0.9,      0.6, 10   ],
		[44,     2,   131.31,   26.26,    0,      0,      5,   1.0,      0,        220.0,    0,   1.1,      0.9,      0.6, 10   ],
		[492,    2,   72.48,    14.5,     0,      0,      5,   1.0,      0,        220.0,    0,   1.1,      0.9,      0.6, 10   ],
		[180,    2,   42.05,    8.41,     0,      0,      5,   1.0,      0,        220.0,    0,   1.1,      0.9,      0.6, 10   ],
		[46,     1,   0,        0,        0,      0,      5,   1.0,      0,        380.0,    0,   1.1,      0.9,      0.6, 10   ],
		[21,     2,   844.06,   168.81,   0,      0,      5,   1.0,      0,        380.0,    0,   1.1,      0.9,      0.6, 10   ],
		[33,     2,   173.77,   34.75,    0,      0,      5,   1.0,      0,        380.0,    0,   1.1,      0.9,      0.6, 10   ],
		[559,    2,   64.3,     12.86,    0,      0,      5,   1.0,      0,        220.0,    0,   1.1,      0.9,      0.6, 10   ],
		[18,     1,   0,        0,        0,      0,      5,   1.002,    0,        380.0,    0,   1.1,      0.9,      0.6, 10   ],
		[73,     2,   77.28,    15.46,    0,      0,      5,   1.0,      0,        380.0,    0,   1.1,      0.9,      0.6, 10   ],
		[503,    2,   65.25,    13.05,    0,      0,      5,   1.0,      0,        220.0,    0,   1.1,      0.9,      0.6, 10   ],
		[511,    2,   95.53,    19.11,    0,      0,      5,   1.0,      0,        220.0,    0,   1.1,      0.9,      0.6, 10   ],
		[72,     2,   241.38,   48.28,    0,      0,      5,   1.0,      0,        380.0,    0,   1.1,      0.9,      0.6, 10   ],
		[288,    2,   56.41,    11.28,    0,      0,      5,   1.0,      0,        380.0,    0,   1.1,      0.9,      0.6, 10   ],
		[339,    2,   140.89,   28.18,    0,      0,      5,   1.0,      0,        220.0,    0,   1.1,      0.9,      0.6, 10   ],
		[321,    2,   181.68,   36.34,    0,      0,      5,   1.0,      0,        220.0,    0,   1.1,      0.9,      0.6, 10   ],
		[8,      2,   139.57,   27.91,    0,      0,      5,   1.0,      0,        380.0,    0,   1.1,      0.9,      0.6, 10   ],
		[292,    2,   115.1,    23.02,    0,      0,      5,   1.0,      0,        380.0,    0,   1.1,      0.9,      0.6, 10   ],
		[343,    2,   102.48,   20.5,     0,      0,      5,   1.0,      0,        220.0,    0,   1.1,      0.9,      0.6, 10   ],
		[12,     1,   0,        0,        0,      0,      5,   1.0007,   0,        380.0,    0,   1.1,      0.9,      0.6, 10   ],
		[340,    2,   119.12,   23.82,    0,      0,      5,   1.0,      0,        220.0,    0,   1.1,      0.9,      0.6, 10   ],
		[177,    2,   24.51,    4.9,      0,      0,      5,   1.0,      0,        220.0,    0,   1.1,      0.9,      0.6, 10   ],
		[497,    2,   890.25,   178.05,   0,      0,      5,   1.0,      0,        220.0,    0,   1.1,      0.9,      0.6, 10   ],
		[102,    2,   129.14,   25.83,    0,      0,      5,   1.0,      0,        380.0,    0,   1.1,      0.9,      0.6, 10   ],
		[311,    2,   177.52,   35.5,     0,      0,      5,   1.0,      0,        380.0,    0,   1.1,      0.9,      0.6, 10   ],
		[429,    2,   303.86,   60.77,    0,      0,      5,   1.0,      0,        220.0,    0,   1.1,      0.9,      0.6, 10   ],
		[32,     1,   0,        0,        0,      0,      5,   0.995,    0,        380.0,    0,   1.1,      0.9,      0.6, 10   ],
		[22,     1,   0,        0,        0,      0,      5,   1.0001,   0,        380.0,    0,   1.1,      0.9,      0.6, 10   ],
		[101,    2,   66.72,    13.34,    0,      0,      5,   1.0,      0,        380.0,    0,   1.1,      0.9,      0.6, 10   ],
		[71,     2,   147.38,   29.48,    0,      0,      5,   1.0,      0,        380.0,    0,   1.1,      0.9,      0.6, 10   ],
		[558,    2,   120.14,   24.03,    0,      0,      5,   1.0,      0,        220.0,    0,   1.1,      0.9,      0.6, 10   ],
		[217,    2,   36.35,    7.27,     0,      0,      5,   1.0,      0,        380.0,    0,   1.1,      0.9,      0.6, 10   ],
		[322,    2,   23.13,    4.63,     0,      0,      5,   1.0,      0,        380.0,    0,   1.1,      0.9,      0.6, 10   ],
		[278,    2,   134.4,    26.88,    0,      0,      5,   1.0,      0,        380.0,    0,   1.1,      0.9,      0.6, 10   ],
		[498,    2,   41.75,    8.35,     0,      0,      5,   1.0,      0,        220.0,    0,   1.1,      0.9,      0.6, 10   ],
		[47,     2,   303.06,   60.61,    0,      0,      5,   1.0,      0,        380.0,    0,   1.1,      0.9,      0.6, 10   ],
		[346,    2,   278.91,   55.78,    0,      0,      5,   1.0,      0,        380.0,    0,   1.1,      0.9,      0.6, 10   ],
		[74,     1,   0,        0,        0,      0,      5,   1.0037,   0,        380.0,    0,   1.1,      0.9,      0.6, 10   ],
		[557,    2,   203.75,   40.75,    0,      0,      5,   1.0,      0,        220.0,    0,   1.1,      0.9,      0.6, 10   ],
		[42,     1,   0,        0,        0,      0,      5,   1.0014,   0,        380.0,    0,   1.1,      0.9,      0.6, 10   ],
		[39,     3,   59.62,    11.92,    0,      0,      5,   1.0,      0,        380.0,    0,   1.1,      0.9,      0.6, 10   ],
		[45,     2,   69.7,     13.94,    0,      0,      5,   1.0,      0,        220.0,    0,   1.1,      0.9,      0.6, 10   ],
		[493,    2,   93.42,    18.68,    0,      0,      5,   1.0,      0,        220.0,    0,   1.1,      0.9,      0.6, 10   ],
		[98,     2,   94.23,    18.85,    0,      0,      5,   1.0,      0,        380.0,    0,   1.1,      0.9,      0.6, 10   ],
		[435,    2,   134.61,   26.92,    0,      0,      5,   1.0,      0,        380.0,    0,   1.1,      0.9,      0.6, 10   ],
		[338,    2,   227.79,   45.56,    0,      0,      5,   1.0,      0,        220.0,    0,   1.1,      0.9,      0.6, 10   ],
		[79,     2,   92.97,    18.59,    0,      0,      5,   1.0,      0,        380.0,    0,   1.1,      0.9,      0.6, 10   ],
		[78,     1,   0,        0,        0,      0,      5,   0.9947,   0,        380.0,    0,   1.1,      0.9,      0.6, 10   ],
		[512,    2,   63.11,    12.62,    0,      0,      5,   1.0,      0,        220.0,    0,   1.1,      0.9,      0.6, 10   ],
		[276,    2,   172.16,   34.43,    0,      0,      5,   1.0,      0,        220.0,    0,   1.1,      0.9,      0.6, 10   ],
		[569,    2,   166.73,   33.35,    0,      0,      5,   1.0,      0,        220.0,    0,   1.1,      0.9,      0.6, 10   ],
		[37,     1,   0,        0,        0,      0,      5,   0.9998,   0,        380.0,    0,   1.1,      0.9,      0.6, 10   ],
		[179,    2,   47.84,    9.57,     0,      0,      5,   1.0,      0,        220.0,    0,   1.1,      0.9,      0.6, 10   ],
		[325,    2,   138.57,   27.71,    0,      0,      5,   1.0,      0,        380.0,    0,   1.1,      0.9,      0.6, 10   ],
		[20,     1,   0,        0,        0,      0,      5,   0.9976,   0,        380.0,    0,   1.1,      0.9,      0.6, 10   ],
		[496,    2,   7.12,     1.42,     0,      0,      5,   1.0,      0,        220.0,    0,   1.1,      0.9,      0.6, 10   ],
		[279,    1,   0,        0,        0,      0,      5,   0.9983,   0,        380.0,    0,   1.1,      0.9,      0.6, 10   ],
		[436,    2,   71.87,    14.37,    0,      0,      5,   1.0,      0,        380.0,    0,   1.1,      0.9,      0.6, 10   ],
		[345,    2,   280.95,   56.19,    0,      0,      5,   1.0,      0,        380.0,    0,   1.1,      0.9,      0.6, 10   ],
		[505,    2,   303.06,   60.61,    0,      0,      5,   1.0,      0,        220.0,    0,   1.1,      0.9,      0.6, 10   ],
		[290,    1,   0,        0,        0,      0,      5,   1.0034,   0,        380.0,    0,   1.1,      0.9,      0.6, 10   ],
		[363,    2,   284.31,   56.86,    0,      0,      5,   1.0,      0,        380.0,    0,   1.1,      0.9,      0.6, 10   ],
		[11,     2,   82.7,     16.54,    0,      0,      5,   1.0,      0,        220.0,    0,   1.1,      0.9,      0.6, 10   ],
		[277,    1,   0,        0,        0,      0,      5,   0.9986,   0,        380.0,    0,   1.1,      0.9,      0.6, 10   ],
		[441,    2,   52.99,    10.6,     0,      0,      5,   1.0,      0,        220.0,    0,   1.1,      0.9,      0.6, 10   ],
		[280,    1,   0,        0,        0,      0,      5,   0.9996,   0,        380.0,    0,   1.1,      0.9,      0.6, 10   ],
		[504,    2,   42.73,    8.55,     0,      0,      5,   1.0,      0,        220.0,    0,   1.1,      0.9,      0.6, 10   ],
		[181,    2,   31.74,    6.35,     0,      0,      5,   1.0,      0,        220.0,    0,   1.1,      0.9,      0.6, 10   ],
		[291,    2,   58.38,    11.68,    0,      0,      5,   1.0,      0,        220.0,    0,   1.1,      0.9,      0.6, 10   ],
		[344,    2,   256.94,   51.39,    0,      0,      5,   1.0,      0,        380.0,    0,   1.1,      0.9,      0.6, 10   ],
		[40,     2,   62.27,    12.45,    0,      0,      5,   1.0,      0,        380.0,    0,   1.1,      0.9,      0.6, 10   ],
		[80,     2,   98.75,    19.75,    0,      0,      5,   1.0,      0,        380.0,    0,   1.1,      0.9,      0.6, 10   ],
		[183,    2,   430.38,   86.08,    0,      0,      5,   1.0,      0,        380.0,    0,   1.1,      0.9,      0.6, 10   ],
		[440,    2,   69.12,    13.82,    0,      0,      5,   1.0,      0,        220.0,    0,   1.1,      0.9,      0.6, 10   ],
		[43,     2,   102.64,   20.53,    0,      0,      5,   1.0,      0,        220.0,    0,   1.1,      0.9,      0.6, 10   ],
		[10,     1,   0,        0,        0,      0,      5,   1.0019,   0,        380.0,    0,   1.1,      0.9,      0.6, 10   ],
		[81,     2,   111.48,   22.3,     0,      0,      5,   1.0,      0,        380.0,    0,   1.1,      0.9,      0.6, 10   ],
		[560,    2,   100.45,   20.09,    0,      0,      5,   1.0,      0,        220.0,    0,   1.1,      0.9,      0.6, 10   ],
		[341,    2,   107.68,   21.54,    0,      0,      5,   1.0,      0,        380.0,    0,   1.1,      0.9,      0.6, 10   ],
		[17,     2,   79.45,    15.89,    0,      0,      5,   1.0,      0,        380.0,    0,   1.1,      0.9,      0.6, 10   ],
		[41,     2,   66.93,    13.39,    0,      0,      5,   1.0,      0,        380.0,    0,   1.1,      0.9,      0.6, 10   ],
		[192,    2,   50.43,    10.09,    0,      0,      0,   1.0,      0,        220.0,    0,   1.1,      0.9,      0.6, 10   ],
		[342,    2,   186.8,    37.36,    0,      0,      0,   1.0,      0,        220.0,    0,   1.1,      0.9,      0.6, 10   ],
		[218,    2,   110.76,   22.15,    0,      0,      0,   1.0,      0,        220.0,    0,   1.1,      0.9,      0.6, 10   ],
		[65,     2,   4.93,     0.99,     0,      0,      0,   1.0,      0,        380.0,    0,   1.1,      0.9,      0.6, 10   ],
		[289,    2,   88.71,    17.74,    0,      0,      0,   1.0,      0,        380.0,    0,   1.1,      0.9,      0.6, 10   ],
		[324,    2,   425.38,   85.08,    0,      0,      0,   1.0,      0,        380.0,    0,   1.1,      0.9,      0.6, 10   ],
		[48,     2,   208.32,   41.66,    0,      0,      0,   1.0,      0,        380.0,    0,   1.1,      0.9,      0.6, 10   ],
		[332,    1,   0,        0,        0,      0,      0,   0.9941,   0,        380.0,    0,   1.1,      0.9,      0.6, 10   ],
		[422,    2,   69.36,    13.87,    0,      0,      0,   1.0,      0,        380.0,    0,   1.1,      0.9,      0.6, 10   ],
		[23,     2,   110.52,   22.1,     0,      0,      0,   1.0,      0,        220.0,    0,   1.1,      0.9,      0.6, 10   ],
		[570,    2,   260.29,   52.06,    0,      0,      0,   1.0,      0,        220.0,    0,   1.1,      0.9,      0.6, 10   ],
		[38,     2,   182.06,   36.41,    0,      0,      0,   1.0,      0,        380.0,    0,   1.1,      0.9,      0.6, 10   ],
		[31,     2,   138.59,   27.72,    0,      0,      0,   1.0,      0,        380.0,    0,   1.1,      0.9,      0.6, 10   ],
		[49,     2,   52.69,    10.54,    0,      0,      0,   1.0,      0,        380.0,    0,   1.1,      0.9,      0.6, 10   ],
		[182,    2,   1.44,     0.29,     0,      0,      0,   1.0,      0,        220.0,    0,   1.1,      0.9,      0.6, 10   ],
		[9,      2,   94.39,    18.88,    0,      0,      0,   1.0,      0,        380.0,    0,   1.1,      0.9,      0.6, 10   ],
		[323,    2,   2.41,     0.48,     0,      0,      0,   1.0,      0,        380.0,    0,   1.1,      0.9,      0.6, 10   ],
		[400,    2,   50.45,    10.09,    0,      0,      0,   1.0,      0,        220.0,    0,   1.1,      0.9,      0.6, 10   ],
		[30,     1,   0,        0,        0,      0,      0,   0.9981,   0,        380.0,    0,   1.1,      0.9,      0.6, 10   ],
		[25,     2,   52.86,    10.57,    0,      0,      0,   1.0,      0,        380.0,    0,   1.1,      0.9,      0.6, 10   ]
	])
	ppc["gen"] = array([
		[102,    0.0,      0,        33.95,    -8.49,    1.0,      100,    1,   67.9,     0.0,      0, 0, 0, 0, 0, 0, 0, 0, 0, 0, 0, 0,   0.95,   101.85,   13.58,    20.37,    20.37,    27.16     ],
		[493,    0.0,      0,        75.0,     -18.75,   1.0,      100,    1,   150.0,    0.0,      0, 0, 0, 0, 0, 0, 0, 0, 0, 0, 0, 0,   0.95,   225.0,    30.0,     45.0,     45.0,     60.0      ],
		[493,    30.0,     0,        15.0,     -3.75,    1.0,      100,    1,   30.0,     0.0,      0, 0, 0, 0, 0, 0, 0, 0, 0, 0, 0, 0,   0.95,   45.0,     6.0,      9.0,      9.0,      12.0      ],
		[177,    0.0,      0,        16.35,    -4.09,    1.0,      100,    1,   32.7,     0.0,      0, 0, 0, 0, 0, 0, 0, 0, 0, 0, 0, 0,   0.95,   49.05,    6.54,     9.81,     9.81,     13.08     ],
		[180,    0.0,      0,        12.7,     -3.18,    1.0,      100,    1,   25.4,     0.0,      0, 0, 0, 0, 0, 0, 0, 0, 0, 0, 0, 0,   0.95,   38.1,     5.08,     7.62,     7.62,     10.16     ],
		[180,    0.0,      0,        166.75,   -41.69,   1.0,      100,    1,   333.5,    0.0,      0, 0, 0, 0, 0, 0, 0, 0, 0, 0, 0, 0,   0.95,   500.25,   66.7,     100.05,   100.05,   133.4     ],
		[180,    0.0,      0,        14.45,    -3.61,    1.0,      100,    1,   28.9,     0.0,      0, 0, 0, 0, 0, 0, 0, 0, 0, 0, 0, 0,   0.95,   43.35,    5.78,     8.67,     8.67,     11.56     ],
		[183,    0.0,      0,        11.25,    -2.81,    1.0,      100,    1,   22.5,     0.0,      0, 0, 0, 0, 0, 0, 0, 0, 0, 0, 0, 0,   0.95,   33.75,    4.5,      6.75,     6.75,     9.0       ],
		[183,    0.0,      0,        383.0,    -95.75,   1.0,      100,    1,   766.0,    0.0,      0, 0, 0, 0, 0, 0, 0, 0, 0, 0, 0, 0,   0.95,   1149.0,   153.2,    229.8,    229.8,    306.4     ],
		[183,    0.0,      0,        19.0,     -4.75,    1.0,      100,    1,   38.0,     0.0,      0, 0, 0, 0, 0, 0, 0, 0, 0, 0, 0, 0,   0.95,   57.0,     7.6,      11.4,     11.4,     15.2      ],
		[183,    0.0,      0,        12.0,     -3.0,     1.0,      100,    1,   24.0,     0.0,      0, 0, 0, 0, 0, 0, 0, 0, 0, 0, 0, 0,   0.95,   36.0,     4.8,      7.2,      7.2,      9.6       ],
		[496,    0.0,      0,        26.4,     -6.6,     1.0,      100,    1,   52.8,     0.0,      0, 0, 0, 0, 0, 0, 0, 0, 0, 0, 0, 0,   0.95,   79.2,     10.56,    15.84,    15.84,    21.12     ],
		[21,     0.0,      0,        63.5,     -15.88,   1.0,      100,    1,   127.0,    0.0,      0, 0, 0, 0, 0, 0, 0, 0, 0, 0, 0, 0,   0.95,   190.5,    25.4,     38.1,     38.1,     50.8      ],
		[21,     0.0,      0,        97.0,     -24.25,   1.0,      100,    1,   194.0,    0.0,      0, 0, 0, 0, 0, 0, 0, 0, 0, 0, 0, 0,   0.95,   291.0,    38.8,     58.2,     58.2,     77.6      ],
		[21,     0.0,      0,        8.2,      -2.05,    1.0,      100,    1,   16.4,     0.0,      0, 0, 0, 0, 0, 0, 0, 0, 0, 0, 0, 0,   0.95,   24.6,     3.28,     4.92,     4.92,     6.56      ],
		[217,    0.0,      0,        54.0,     -13.5,    1.0,      100,    1,   108.0,    0.0,      0, 0, 0, 0, 0, 0, 0, 0, 0, 0, 0, 0,   0.95,   162.0,    21.6,     32.4,     32.4,     43.2      ],
		[217,    0.0,      0,        254.0,    -63.5,    1.0,      100,    1,   508.0,    0.0,      0, 0, 0, 0, 0, 0, 0, 0, 0, 0, 0, 0,   0.95,   762.0,    101.6,    152.4,    152.4,    203.2     ],
		[217,    0.0,      0,        8.5,      -2.12,    1.0,      100,    1,   17.0,     0.0,      0, 0, 0, 0, 0, 0, 0, 0, 0, 0, 0, 0,   0.95,   25.5,     3.4,      5.1,      5.1,      6.8       ],
		[498,    0.0,      0,        149.25,   -37.31,   1.0,      100,    1,   298.5,    0.0,      0, 0, 0, 0, 0, 0, 0, 0, 0, 0, 0, 0,   0.95,   447.75,   59.7,     89.55,    89.55,    119.4     ],
		[557,    90.8,     0,        45.4,     -11.35,   1.0,      100,    1,   90.8,     0.0,      0, 0, 0, 0, 0, 0, 0, 0, 0, 0, 0, 0,   0.95,   136.2,    18.16,    27.24,    27.24,    36.32     ],
		[558,    0.0,      0,        37.0,     -9.25,    1.0,      100,    1,   74.0,     0.0,      0, 0, 0, 0, 0, 0, 0, 0, 0, 0, 0, 0,   0.95,   111.0,    14.8,     22.2,     22.2,     29.6      ],
		[559,    0.0,      0,        8.5,      -2.12,    1.0,      100,    1,   17.0,     0.0,      0, 0, 0, 0, 0, 0, 0, 0, 0, 0, 0, 0,   0.95,   25.5,     3.4,      5.1,      5.1,      6.8       ],
		[288,    15.7,     0,        7.85,     -1.96,    1.0,      100,    1,   15.7,     0.0,      0, 0, 0, 0, 0, 0, 0, 0, 0, 0, 0, 0,   0.95,   23.55,    3.14,     4.71,     4.71,     6.28      ],
		[289,    1105.0,   0,        552.5,    -138.12,  1.0,      100,    1,   1105.0,   0.0,      0, 0, 0, 0, 0, 0, 0, 0, 0, 0, 0, 0,   0.95,   1657.5,   221.0,    331.5,    331.5,    442.0     ],
		[560,    0.0,      0,        10.15,    -2.54,    1.0,      100,    1,   20.3,     0.0,      0, 0, 0, 0, 0, 0, 0, 0, 0, 0, 0, 0,   0.95,   30.45,    4.06,     6.09,     6.09,     8.12      ],
		[560,    0.0,      0,        108.0,    -27.0,    1.0,      100,    1,   216.0,    0.0,      0, 0, 0, 0, 0, 0, 0, 0, 0, 0, 0, 0,   0.95,   324.0,    43.2,     64.8,     64.8,     86.4      ],
		[560,    59.0,     0,        29.5,     -7.38,    1.0,      100,    1,   59.0,     0.0,      0, 0, 0, 0, 0, 0, 0, 0, 0, 0, 0, 0,   0.95,   88.5,     11.8,     17.7,     17.7,     23.6      ],
		[292,    0.0,      0,        6.75,     -1.69,    1.0,      100,    1,   13.5,     0.0,      0, 0, 0, 0, 0, 0, 0, 0, 0, 0, 0, 0,   0.95,   20.25,    2.7,      4.05,     4.05,     5.4       ],
		[292,    11.2,     0,        5.6,      -1.4,     1.0,      100,    1,   11.2,     0.0,      0, 0, 0, 0, 0, 0, 0, 0, 0, 0, 0, 0,   0.95,   16.8,     2.24,     3.36,     3.36,     4.48      ],
		[31,     0.0,      0,        97.7,     -24.42,   1.0,      100,    1,   195.4,    0.0,      0, 0, 0, 0, 0, 0, 0, 0, 0, 0, 0, 0,   0.95,   293.1,    39.08,    58.62,    58.62,    78.16     ],
		[311,    875.0,    0,        437.5,    -109.38,  1.0,      100,    1,   875.0,    0.0,      0, 0, 0, 0, 0, 0, 0, 0, 0, 0, 0, 0,   0.95,   1312.5,   175.0,    262.5,    262.5,    350.0     ],
		[321,    0.0,      0,        6.45,     -1.61,    1.0,      100,    1,   12.9,     0.0,      0, 0, 0, 0, 0, 0, 0, 0, 0, 0, 0, 0,   0.95,   19.35,    2.58,     3.87,     3.87,     5.16      ],
		[324,    0.0,      0,        159.9,    -39.98,   1.0,      100,    1,   319.8,    0.0,      0, 0, 0, 0, 0, 0, 0, 0, 0, 0, 0, 0,   0.95,   479.7,    63.96,    95.94,    95.94,    127.92    ],
		[325,    0.0,      0,        13.45,    -3.36,    1.0,      100,    1,   26.9,     0.0,      0, 0, 0, 0, 0, 0, 0, 0, 0, 0, 0, 0,   0.95,   40.35,    5.38,     8.07,     8.07,     10.76     ],
		[502,    0.0,      0,        54.55,    -13.64,   1.0,      100,    1,   109.1,    0.0,      0, 0, 0, 0, 0, 0, 0, 0, 0, 0, 0, 0,   0.95,   163.65,   21.82,    32.73,    32.73,    43.64     ],
		[33,     0.0,      0,        15.9,     -3.98,    1.0,      100,    1,   31.8,     0.0,      0, 0, 0, 0, 0, 0, 0, 0, 0, 0, 0, 0,   0.95,   47.7,     6.36,     9.54,     9.54,     12.72     ],
		[570,    0.0,      0,        26.4,     -6.6,     1.0,      100,    1,   52.8,     0.0,      0, 0, 0, 0, 0, 0, 0, 0, 0, 0, 0, 0,   0.95,   79.2,     10.56,    15.84,    15.84,    21.12     ],
		[570,    89.0,     0,        44.5,     -11.12,   1.0,      100,    1,   89.0,     0.0,      0, 0, 0, 0, 0, 0, 0, 0, 0, 0, 0, 0,   0.95,   133.5,    17.8,     26.7,     26.7,     35.6      ],
		[338,    0.0,      0,        149.8,    -37.45,   1.0,      100,    1,   299.6,    0.0,      0, 0, 0, 0, 0, 0, 0, 0, 0, 0, 0, 0,   0.95,   449.4,    59.92,    89.88,    89.88,    119.84    ],
		[338,    82.5,     0,        41.25,    -10.31,   1.0,      100,    1,   82.5,     0.0,      0, 0, 0, 0, 0, 0, 0, 0, 0, 0, 0, 0,   0.95,   123.75,   16.5,     24.75,    24.75,    33.0      ],
		[339,    134.0,    0,        67.0,     -16.75,   1.0,      100,    1,   134.0,    0.0,      0, 0, 0, 0, 0, 0, 0, 0, 0, 0, 0, 0,   0.95,   201.0,    26.8,     40.2,     40.2,     53.6      ],
		[339,    0.0,      0,        79.5,     -19.88,   1.0,      100,    1,   159.0,    0.0,      0, 0, 0, 0, 0, 0, 0, 0, 0, 0, 0, 0,   0.95,   238.5,    31.8,     47.7,     47.7,     63.6      ],
		[339,    0.0,      0,        55.5,     -13.88,   1.0,      100,    1,   111.0,    0.0,      0, 0, 0, 0, 0, 0, 0, 0, 0, 0, 0, 0,   0.95,   166.5,    22.2,     33.3,     33.3,     44.4      ],
		[339,    0.0,      0,        21.35,    -5.34,    1.0,      100,    1,   42.7,     0.0,      0, 0, 0, 0, 0, 0, 0, 0, 0, 0, 0, 0,   0.95,   64.05,    8.54,     12.81,    12.81,    17.08     ],
		[339,    58.0,     0,        29.0,     -7.25,    1.0,      100,    1,   58.0,     0.0,      0, 0, 0, 0, 0, 0, 0, 0, 0, 0, 0, 0,   0.95,   87.0,     11.6,     17.4,     17.4,     23.2      ],
		[340,    0.0,      0,        9.75,     -2.44,    1.0,      100,    1,   19.5,     0.0,      0, 0, 0, 0, 0, 0, 0, 0, 0, 0, 0, 0,   0.95,   29.25,    3.9,      5.85,     5.85,     7.8       ],
		[342,    0.0,      0,        34.98,    -8.74,    1.0,      100,    1,   69.95,    0.0,      0, 0, 0, 0, 0, 0, 0, 0, 0, 0, 0, 0,   0.95,   104.93,   13.99,    20.98,    20.98,    27.98     ],
		[345,    0.0,      0,        105.5,    -26.38,   1.0,      100,    1,   211.0,    0.0,      0, 0, 0, 0, 0, 0, 0, 0, 0, 0, 0, 0,   0.95,   316.5,    42.2,     63.3,     63.3,     84.4      ],
		[345,    0.0,      0,        44.5,     -11.12,   1.0,      100,    1,   89.0,     0.0,      0, 0, 0, 0, 0, 0, 0, 0, 0, 0, 0, 0,   0.95,   133.5,    17.8,     26.7,     26.7,     35.6      ],
		[345,    0.0,      0,        163.5,    -40.88,   1.0,      100,    1,   327.0,    0.0,      0, 0, 0, 0, 0, 0, 0, 0, 0, 0, 0, 0,   0.95,   490.5,    65.4,     98.1,     98.1,     130.8     ],
		[346,    0.0,      0,        229.45,   -57.36,   1.0,      100,    1,   458.9,    0.0,      0, 0, 0, 0, 0, 0, 0, 0, 0, 0, 0, 0,   0.95,   688.35,   91.78,    137.67,   137.67,   183.56    ],
		[363,    0.0,      0,        40.9,     -10.22,   1.0,      100,    1,   81.8,     0.0,      0, 0, 0, 0, 0, 0, 0, 0, 0, 0, 0, 0,   0.95,   122.7,    16.36,    24.54,    24.54,    32.72     ],
		[363,    0.0,      0,        344.0,    -86.0,    1.0,      100,    1,   688.0,    0.0,      0, 0, 0, 0, 0, 0, 0, 0, 0, 0, 0, 0,   0.95,   1032.0,   137.6,    206.4,    206.4,    275.2     ],
		[363,    36.0,     0,        18.0,     -4.5,     1.0,      100,    1,   36.0,     0.0,      0, 0, 0, 0, 0, 0, 0, 0, 0, 0, 0, 0,   0.95,   54.0,     7.2,      10.8,     10.8,     14.4      ],
		[503,    0.0,      0,        26.0,     -6.5,     1.0,      100,    1,   52.0,     0.0,      0, 0, 0, 0, 0, 0, 0, 0, 0, 0, 0, 0,   0.95,   78.0,     10.4,     15.6,     15.6,     20.8      ],
		[503,    0.0,      0,        680.0,    -170.0,   1.0,      100,    1,   1360.0,   0.0,      0, 0, 0, 0, 0, 0, 0, 0, 0, 0, 0, 0,   0.95,   2040.0,   272.0,    408.0,    408.0,    544.0     ],
		[503,    0.0,      0,        29.2,     -7.3,     1.0,      100,    1,   58.4,     0.0,      0, 0, 0, 0, 0, 0, 0, 0, 0, 0, 0, 0,   0.95,   87.6,     11.68,    17.52,    17.52,    23.36     ],
		[39,     0.0,      0,        1149.65,  -287.41,  1.0,      100,    1,   2299.3,   0.0,      0, 0, 0, 0, 0, 0, 0, 0, 0, 0, 0, 0,   0.95,   3448.95,  459.86,   689.79,   689.79,   919.72    ],
		[40,     48.0,     0,        24.0,     -6.0,     1.0,      100,    1,   48.0,     0.0,      0, 0, 0, 0, 0, 0, 0, 0, 0, 0, 0, 0,   0.95,   72.0,     9.6,      14.4,     14.4,     19.2      ],
		[400,    0.0,      0,        44.0,     -11.0,    1.0,      100,    1,   88.0,     0.0,      0, 0, 0, 0, 0, 0, 0, 0, 0, 0, 0, 0,   0.95,   132.0,    17.6,     26.4,     26.4,     35.2      ],
		[400,    0.0,      0,        30.0,     -7.5,     1.0,      100,    1,   60.0,     0.0,      0, 0, 0, 0, 0, 0, 0, 0, 0, 0, 0, 0,   0.95,   90.0,     12.0,     18.0,     18.0,     24.0      ],
		[400,    0.0,      0,        79.0,     -19.75,   1.0,      100,    1,   158.0,    0.0,      0, 0, 0, 0, 0, 0, 0, 0, 0, 0, 0, 0,   0.95,   237.0,    31.6,     47.4,     47.4,     63.2      ],
		[422,    0.0,      0,        37.0,     -9.25,    1.0,      100,    1,   74.0,     0.0,      0, 0, 0, 0, 0, 0, 0, 0, 0, 0, 0, 0,   0.95,   111.0,    14.8,     22.2,     22.2,     29.6      ],
		[43,     0.0,      0,        98.0,     -24.5,    1.0,      100,    1,   196.0,    0.0,      0, 0, 0, 0, 0, 0, 0, 0, 0, 0, 0, 0,   0.95,   294.0,    39.2,     58.8,     58.8,     78.4      ],
		[43,     17.0,     0,        8.5,      -2.12,    1.0,      100,    1,   17.0,     0.0,      0, 0, 0, 0, 0, 0, 0, 0, 0, 0, 0, 0,   0.95,   25.5,     3.4,      5.1,      5.1,      6.8       ],
		[429,    0.0,      0,        82.0,     -20.5,    1.0,      100,    1,   164.0,    0.0,      0, 0, 0, 0, 0, 0, 0, 0, 0, 0, 0, 0,   0.95,   246.0,    32.8,     49.2,     49.2,     65.6      ],
		[44,     26.0,     0,        13.0,     -3.25,    1.0,      100,    1,   26.0,     0.0,      0, 0, 0, 0, 0, 0, 0, 0, 0, 0, 0, 0,   0.95,   39.0,     5.2,      7.8,      7.8,      10.4      ],
		[435,    0.0,      0,        91.0,     -22.75,   1.0,      100,    1,   182.0,    0.0,      0, 0, 0, 0, 0, 0, 0, 0, 0, 0, 0, 0,   0.95,   273.0,    36.4,     54.6,     54.6,     72.8      ],
		[435,    0.0,      0,        30.75,    -7.69,    1.0,      100,    1,   61.5,     0.0,      0, 0, 0, 0, 0, 0, 0, 0, 0, 0, 0, 0,   0.95,   92.25,    12.3,     18.45,    18.45,    24.6      ],
		[436,    0.0,      0,        13.25,    -3.31,    1.0,      100,    1,   26.5,     0.0,      0, 0, 0, 0, 0, 0, 0, 0, 0, 0, 0, 0,   0.95,   39.75,    5.3,      7.95,     7.95,     10.6      ],
		[440,    0.0,      0,        7.35,     -1.84,    1.0,      100,    1,   14.7,     0.0,      0, 0, 0, 0, 0, 0, 0, 0, 0, 0, 0, 0,   0.95,   22.05,    2.94,     4.41,     4.41,     5.88      ],
		[441,    0.0,      0,        37.5,     -9.38,    1.0,      100,    1,   75.0,     0.0,      0, 0, 0, 0, 0, 0, 0, 0, 0, 0, 0, 0,   0.95,   112.5,    15.0,     22.5,     22.5,     30.0      ],
		[45,     0.0,      0,        148.0,    -37.0,    1.0,      100,    1,   296.0,    0.0,      0, 0, 0, 0, 0, 0, 0, 0, 0, 0, 0, 0,   0.95,   444.0,    59.2,     88.8,     88.8,     118.4     ],
		[45,     0.0,      0,        11.55,    -2.89,    1.0,      100,    1,   23.1,     0.0,      0, 0, 0, 0, 0, 0, 0, 0, 0, 0, 0, 0,   0.95,   34.65,    4.62,     6.93,     6.93,     9.24      ],
		[47,     0.0,      0,        222.0,    -55.5,    1.0,      100,    1,   444.0,    0.0,      0, 0, 0, 0, 0, 0, 0, 0, 0, 0, 0, 0,   0.95,   666.0,    88.8,     133.2,    133.2,    177.6     ],
		[47,     31.7,     0,        15.85,    -3.96,    1.0,      100,    1,   31.7,     0.0,      0, 0, 0, 0, 0, 0, 0, 0, 0, 0, 0, 0,   0.95,   47.55,    6.34,     9.51,     9.51,     12.68     ],
		[49,     0.0,      0,        176.0,    -44.0,    1.0,      100,    1,   352.0,    0.0,      0, 0, 0, 0, 0, 0, 0, 0, 0, 0, 0, 0,   0.95,   528.0,    70.4,     105.6,    105.6,    140.8     ],
		[49,     0.0,      0,        33.0,     -8.25,    1.0,      100,    1,   66.0,     0.0,      0, 0, 0, 0, 0, 0, 0, 0, 0, 0, 0, 0,   0.95,   99.0,     13.2,     19.8,     19.8,     26.4      ],
		[49,     0.0,      0,        18.75,    -4.69,    1.0,      100,    1,   37.5,     0.0,      0, 0, 0, 0, 0, 0, 0, 0, 0, 0, 0, 0,   0.95,   56.25,    7.5,      11.25,    11.25,    15.0      ],
		[65,     164.5,    0,        82.25,    -20.56,   1.0,      100,    1,   164.5,    0.0,      0, 0, 0, 0, 0, 0, 0, 0, 0, 0, 0, 0,   0.95,   246.75,   32.9,     49.35,    49.35,    65.8      ],
		[71,     0.0,      0,        24.5,     -6.12,    1.0,      100,    1,   49.0,     0.0,      0, 0, 0, 0, 0, 0, 0, 0, 0, 0, 0, 0,   0.95,   73.5,     9.8,      14.7,     14.7,     19.6      ],
		[71,     0.0,      0,        80.55,    -20.14,   1.0,      100,    1,   161.1,    0.0,      0, 0, 0, 0, 0, 0, 0, 0, 0, 0, 0, 0,   0.95,   241.65,   32.22,    48.33,    48.33,    64.44     ],
		[71,     9.9,      0,        4.95,     -1.24,    1.0,      100,    1,   9.9,      0.0,      0, 0, 0, 0, 0, 0, 0, 0, 0, 0, 0, 0,   0.95,   14.85,    1.98,     2.97,     2.97,     3.96      ],
		[72,     505.02,   0,        450.0,    -112.5,   1.0,      100,    1,   900.0,    0.0,      0, 0, 0, 0, 0, 0, 0, 0, 0, 0, 0, 0,   0.95,   1350.0,   180.0,    270.0,    270.0,    360.0     ],
		[72,     0.0,      0,        75.5,     -18.88,   1.0,      100,    1,   151.0,    0.0,      0, 0, 0, 0, 0, 0, 0, 0, 0, 0, 0, 0,   0.95,   226.5,    30.2,     45.3,     45.3,     60.4      ],
		[72,     0.0,      0,        60.0,     -15.0,    1.0,      100,    1,   120.0,    0.0,      0, 0, 0, 0, 0, 0, 0, 0, 0, 0, 0, 0,   0.95,   180.0,    24.0,     36.0,     36.0,     48.0      ],
		[511,    0.0,      0,        61.0,     -15.25,   1.0,      100,    1,   122.0,    0.0,      0, 0, 0, 0, 0, 0, 0, 0, 0, 0, 0, 0,   0.95,   183.0,    24.4,     36.6,     36.6,     48.8      ],
		[511,    23.3,     0,        11.65,    -2.91,    1.0,      100,    1,   23.3,     0.0,      0, 0, 0, 0, 0, 0, 0, 0, 0, 0, 0, 0,   0.95,   34.95,    4.66,     6.99,     6.99,     9.32      ],
		[75,     0.0,      0,        24.5,     -6.12,    1.0,      100,    1,   49.0,     0.0,      0, 0, 0, 0, 0, 0, 0, 0, 0, 0, 0, 0,   0.95,   73.5,     9.8,      14.7,     14.7,     19.6      ],
		[79,     750.0,    0,        375.0,    -93.75,   1.0,      100,    1,   750.0,    0.0,      0, 0, 0, 0, 0, 0, 0, 0, 0, 0, 0, 0,   0.95,   1125.0,   150.0,    225.0,    225.0,    300.0     ],
		[79,     18.7,     0,        9.35,     -2.34,    1.0,      100,    1,   18.7,     0.0,      0, 0, 0, 0, 0, 0, 0, 0, 0, 0, 0, 0,   0.95,   28.05,    3.74,     5.61,     5.61,     7.48      ],
		[81,     0.0,      0,        1417.5,   -354.38,  1.0,      100,    1,   2835.0,   0.0,      0, 0, 0, 0, 0, 0, 0, 0, 0, 0, 0, 0,   0.95,   4252.5,   567.0,    850.5,    850.5,    1134.0    ],
		[81,     0.0,      0,        62.25,    -15.56,   1.0,      100,    1,   124.5,    0.0,      0, 0, 0, 0, 0, 0, 0, 0, 0, 0, 0, 0,   0.95,   186.75,   24.9,     37.35,    37.35,    49.8      ],
		[218,    48.3,     0,        24.15,    -6.04,    1.0,      100,    1,   48.3,     0.0,      0, 0, 0, 0, 0, 0, 0, 0, 0, 0, 0, 1,   0.95,   72.45,    9.66,     14.49,    14.49,    19.32     ],
		[498,    1444.3,   0,        722.15,   -180.54,  1.0,      100,    1,   1444.3,   0.0,      0, 0, 0, 0, 0, 0, 0, 0, 0, 0, 0, 1,   0.95,   2166.45,  288.86,   433.29,   433.29,   577.72    ],
		[8,      69.09,    0,        34.55,    -8.64,    1.0,      100,    1,   69.09,    0.0,      0, 0, 0, 0, 0, 0, 0, 0, 0, 0, 0, 1,   0.95,   103.64,   13.82,    20.73,    20.73,    27.64     ],
		[9,      61.22,    0,        30.61,    -7.65,    1.0,      100,    1,   61.22,    0.0,      0, 0, 0, 0, 0, 0, 0, 0, 0, 0, 0, 1,   0.95,   91.83,    12.24,    18.37,    18.37,    24.49     ],
		[11,     122.38,   0,        61.19,    -15.3,    1.0,      100,    1,   122.38,   0.0,      0, 0, 0, 0, 0, 0, 0, 0, 0, 0, 0, 1,   0.95,   183.57,   24.48,    36.71,    36.71,    48.95     ],
		[17,     45.37,    0,        22.68,    -5.67,    1.0,      100,    1,   45.37,    0.0,      0, 0, 0, 0, 0, 0, 0, 0, 0, 0, 0, 1,   0.95,   68.05,    9.07,     13.61,    13.61,    18.15     ],
		[21,     24.67,    0,        12.34,    -3.08,    1.0,      100,    1,   24.67,    0.0,      0, 0, 0, 0, 0, 0, 0, 0, 0, 0, 0, 1,   0.95,   37.01,    4.93,     7.4,      7.4,      9.87      ],
		[23,     42.06,    0,        21.03,    -5.26,    1.0,      100,    1,   42.06,    0.0,      0, 0, 0, 0, 0, 0, 0, 0, 0, 0, 0, 1,   0.95,   63.1,     8.41,     12.62,    12.62,    16.83     ],
		[25,     0.0,      0,        36.66,    -9.17,    1.0,      100,    1,   73.33,    0.0,      0, 0, 0, 0, 0, 0, 0, 0, 0, 0, 0, 1,   0.95,   109.99,   14.67,    22.0,     22.0,     29.33     ],
		[31,     28.97,    0,        14.49,    -3.62,    1.0,      100,    1,   28.97,    0.0,      0, 0, 0, 0, 0, 0, 0, 0, 0, 0, 0, 1,   0.95,   43.46,    5.79,     8.69,     8.69,     11.59     ],
		[33,     263.27,   0,        131.63,   -32.91,   1.0,      100,    1,   263.27,   0.0,      0, 0, 0, 0, 0, 0, 0, 0, 0, 0, 0, 1,   0.95,   394.9,    52.65,    78.98,    78.98,    105.31    ],
		[38,     2.55,     0,        1.27,     -0.32,    1.0,      100,    1,   2.55,     0.0,      0, 0, 0, 0, 0, 0, 0, 0, 0, 0, 0, 1,   0.95,   3.82,     0.51,     0.76,     0.76,     1.02      ],
		[39,     507.82,   0,        253.91,   -63.48,   1.0,      100,    1,   507.82,   0.0,      0, 0, 0, 0, 0, 0, 0, 0, 0, 0, 0, 1,   0.95,   761.73,   101.56,   152.35,   152.35,   203.13    ],
		[40,     425.49,   0,        212.75,   -53.19,   1.0,      100,    1,   425.49,   0.0,      0, 0, 0, 0, 0, 0, 0, 0, 0, 0, 0, 1,   0.95,   638.24,   85.1,     127.65,   127.65,   170.2     ],
		[41,     999.82,   0,        499.91,   -124.98,  1.0,      100,    1,   999.82,   0.0,      0, 0, 0, 0, 0, 0, 0, 0, 0, 0, 0, 1,   0.95,   1499.73,  199.96,   299.95,   299.95,   399.93    ],
		[43,     390.78,   0,        195.39,   -48.85,   1.0,      100,    1,   390.78,   0.0,      0, 0, 0, 0, 0, 0, 0, 0, 0, 0, 0, 1,   0.95,   586.17,   78.16,    117.23,   117.23,   156.31    ],
		[44,     8.15,     0,        4.08,     -1.02,    1.0,      100,    1,   8.15,     0.0,      0, 0, 0, 0, 0, 0, 0, 0, 0, 0, 0, 1,   0.95,   12.23,    1.63,     2.45,     2.45,     3.26      ],
		[45,     135.3,    0,        67.65,    -16.91,   1.0,      100,    1,   135.3,    0.0,      0, 0, 0, 0, 0, 0, 0, 0, 0, 0, 0, 1,   0.95,   202.95,   27.06,    40.59,    40.59,    54.12     ],
		[47,     2.38,     0,        1.19,     -0.3,     1.0,      100,    1,   2.38,     0.0,      0, 0, 0, 0, 0, 0, 0, 0, 0, 0, 0, 1,   0.95,   3.57,     0.48,     0.71,     0.71,     0.95      ],
		[48,     7.15,     0,        3.57,     -0.89,    1.0,      100,    1,   7.15,     0.0,      0, 0, 0, 0, 0, 0, 0, 0, 0, 0, 0, 1,   0.95,   10.72,    1.43,     2.14,     2.14,     2.86      ],
		[49,     166.84,   0,        83.42,    -20.86,   1.0,      100,    1,   166.84,   0.0,      0, 0, 0, 0, 0, 0, 0, 0, 0, 0, 0, 1,   0.95,   250.27,   33.37,    50.05,    50.05,    66.74     ],
		[65,     14.42,    0,        7.21,     -1.8,     1.0,      100,    1,   14.42,    0.0,      0, 0, 0, 0, 0, 0, 0, 0, 0, 0, 0, 1,   0.95,   21.63,    2.88,     4.33,     4.33,     5.77      ],
		[71,     304.65,   0,        152.33,   -38.08,   1.0,      100,    1,   304.65,   0.0,      0, 0, 0, 0, 0, 0, 0, 0, 0, 0, 0, 1,   0.95,   456.98,   60.93,    91.4,     91.4,     121.86    ],
		[72,     345.74,   0,        172.87,   -43.22,   1.0,      100,    1,   345.74,   0.0,      0, 0, 0, 0, 0, 0, 0, 0, 0, 0, 0, 1,   0.95,   518.6,    69.15,    103.72,   103.72,   138.29    ],
		[73,     523.33,   0,        261.66,   -65.42,   1.0,      100,    1,   523.33,   0.0,      0, 0, 0, 0, 0, 0, 0, 0, 0, 0, 0, 1,   0.95,   784.99,   104.67,   157.0,    157.0,    209.33    ],
		[75,     478.0,    0,        239.0,    -59.75,   1.0,      100,    1,   478.0,    0.0,      0, 0, 0, 0, 0, 0, 0, 0, 0, 0, 0, 1,   0.95,   717.0,    95.6,     143.4,    143.4,    191.2     ],
		[79,     106.35,   0,        53.18,    -13.29,   1.0,      100,    1,   106.35,   0.0,      0, 0, 0, 0, 0, 0, 0, 0, 0, 0, 0, 1,   0.95,   159.53,   21.27,    31.91,    31.91,    42.54     ],
		[80,     36.17,    0,        18.09,    -4.52,    1.0,      100,    1,   36.17,    0.0,      0, 0, 0, 0, 0, 0, 0, 0, 0, 0, 0, 1,   0.95,   54.26,    7.23,     10.85,    10.85,    14.47     ],
		[81,     299.7,    0,        149.85,   -37.46,   1.0,      100,    1,   299.7,    0.0,      0, 0, 0, 0, 0, 0, 0, 0, 0, 0, 0, 1,   0.95,   449.54,   59.94,    89.91,    89.91,    119.88    ],
		[98,     83.68,    0,        41.84,    -10.46,   1.0,      100,    1,   83.68,    0.0,      0, 0, 0, 0, 0, 0, 0, 0, 0, 0, 0, 1,   0.95,   125.52,   16.74,    25.1,     25.1,     33.47     ],
		[101,    345.0,    0,        172.5,    -43.13,   1.0,      100,    1,   345.0,    0.0,      0, 0, 0, 0, 0, 0, 0, 0, 0, 0, 0, 1,   0.95,   517.51,   69.0,     103.5,    103.5,    138.0     ],
		[102,    224.19,   0,        112.1,    -28.02,   1.0,      100,    1,   224.19,   0.0,      0, 0, 0, 0, 0, 0, 0, 0, 0, 0, 0, 1,   0.95,   336.29,   44.84,    67.26,    67.26,    89.68     ],
		[177,    237.29,   0,        118.65,   -29.66,   1.0,      100,    1,   237.29,   0.0,      0, 0, 0, 0, 0, 0, 0, 0, 0, 0, 0, 1,   0.95,   355.94,   47.46,    71.19,    71.19,    94.92     ],
		[179,    355.1,    0,        237.97,   -59.49,   1.0,      100,    1,   475.94,   0.0,      0, 0, 0, 0, 0, 0, 0, 0, 0, 0, 0, 1,   0.95,   713.92,   95.19,    142.78,   142.78,   190.38    ],
		[180,    300.24,   0,        150.12,   -37.53,   1.0,      100,    1,   300.24,   0.0,      0, 0, 0, 0, 0, 0, 0, 0, 0, 0, 0, 1,   0.95,   450.36,   60.05,    90.07,    90.07,    120.09    ],
		[181,    278.28,   0,        139.14,   -34.79,   1.0,      100,    1,   278.28,   0.0,      0, 0, 0, 0, 0, 0, 0, 0, 0, 0, 0, 1,   0.95,   417.43,   55.66,    83.49,    83.49,    111.31    ],
		[182,    53.84,    0,        26.92,    -6.73,    1.0,      100,    1,   53.84,    0.0,      0, 0, 0, 0, 0, 0, 0, 0, 0, 0, 0, 1,   0.95,   80.76,    10.77,    16.15,    16.15,    21.53     ],
		[183,    61.88,    0,        30.94,    -7.73,    1.0,      100,    1,   61.88,    0.0,      0, 0, 0, 0, 0, 0, 0, 0, 0, 0, 0, 1,   0.95,   92.81,    12.38,    18.56,    18.56,    24.75     ],
		[192,    251.21,   0,        125.6,    -31.4,    1.0,      100,    1,   251.21,   0.0,      0, 0, 0, 0, 0, 0, 0, 0, 0, 0, 0, 1,   0.95,   376.81,   50.24,    75.36,    75.36,    100.48    ],
		[217,    159.39,   0,        79.69,    -19.92,   1.0,      100,    1,   159.39,   0.0,      0, 0, 0, 0, 0, 0, 0, 0, 0, 0, 0, 1,   0.95,   239.08,   31.88,    47.82,    47.82,    63.75     ],
		[218,    90.25,    0,        45.12,    -11.28,   1.0,      100,    1,   90.25,    0.0,      0, 0, 0, 0, 0, 0, 0, 0, 0, 0, 0, 1,   0.95,   135.37,   18.05,    27.07,    27.07,    36.1      ],
		[276,    310.13,   0,        155.06,   -38.77,   1.0,      100,    1,   310.13,   0.0,      0, 0, 0, 0, 0, 0, 0, 0, 0, 0, 0, 1,   0.95,   465.19,   62.03,    93.04,    93.04,    124.05    ],
		[278,    341.74,   0,        170.87,   -42.72,   1.0,      100,    1,   341.74,   0.0,      0, 0, 0, 0, 0, 0, 0, 0, 0, 0, 0, 1,   0.95,   512.61,   68.35,    102.52,   102.52,   136.7     ],
		[288,    73.82,    0,        36.91,    -9.23,    1.0,      100,    1,   73.82,    0.0,      0, 0, 0, 0, 0, 0, 0, 0, 0, 0, 0, 1,   0.95,   110.73,   14.76,    22.15,    22.15,    29.53     ],
		[289,    27.31,    0,        13.66,    -3.41,    1.0,      100,    1,   27.31,    0.0,      0, 0, 0, 0, 0, 0, 0, 0, 0, 0, 0, 1,   0.95,   40.97,    5.46,     8.19,     8.19,     10.92     ],
		[291,    19.82,    0,        9.91,     -2.48,    1.0,      100,    1,   19.82,    0.0,      0, 0, 0, 0, 0, 0, 0, 0, 0, 0, 0, 1,   0.95,   29.73,    3.96,     5.95,     5.95,     7.93      ],
		[292,    13.83,    0,        6.91,     -1.73,    1.0,      100,    1,   13.83,    0.0,      0, 0, 0, 0, 0, 0, 0, 0, 0, 0, 0, 1,   0.95,   20.74,    2.77,     4.15,     4.15,     5.53      ],
		[311,    26.47,    0,        13.23,    -3.31,    1.0,      100,    1,   26.47,    0.0,      0, 0, 0, 0, 0, 0, 0, 0, 0, 0, 0, 1,   0.95,   39.7,     5.29,     7.94,     7.94,     10.59     ],
		[321,    39.38,    0,        19.69,    -4.92,    1.0,      100,    1,   39.38,    0.0,      0, 0, 0, 0, 0, 0, 0, 0, 0, 0, 0, 1,   0.95,   59.07,    7.88,     11.81,    11.81,    15.75     ],
		[322,    93.38,    0,        46.69,    -11.67,   1.0,      100,    1,   93.38,    0.0,      0, 0, 0, 0, 0, 0, 0, 0, 0, 0, 0, 1,   0.95,   140.07,   18.68,    28.01,    28.01,    37.35     ],
		[323,    22.79,    0,        11.4,     -2.85,    1.0,      100,    1,   22.79,    0.0,      0, 0, 0, 0, 0, 0, 0, 0, 0, 0, 0, 1,   0.95,   34.19,    4.56,     6.84,     6.84,     9.12      ],
		[324,    59.63,    0,        29.81,    -7.45,    1.0,      100,    1,   59.63,    0.0,      0, 0, 0, 0, 0, 0, 0, 0, 0, 0, 0, 1,   0.95,   89.44,    11.93,    17.89,    17.89,    23.85     ],
		[325,    150.19,   0,        75.09,    -18.77,   1.0,      100,    1,   150.19,   0.0,      0, 0, 0, 0, 0, 0, 0, 0, 0, 0, 0, 1,   0.95,   225.28,   30.04,    45.06,    45.06,    60.07     ],
		[338,    61.95,    0,        30.97,    -7.74,    1.0,      100,    1,   61.95,    0.0,      0, 0, 0, 0, 0, 0, 0, 0, 0, 0, 0, 1,   0.95,   92.92,    12.39,    18.58,    18.58,    24.78     ],
		[339,    97.16,    0,        48.58,    -12.14,   1.0,      100,    1,   97.16,    0.0,      0, 0, 0, 0, 0, 0, 0, 0, 0, 0, 0, 1,   0.95,   145.73,   19.43,    29.15,    29.15,    38.86     ],
		[340,    152.3,    0,        76.15,    -19.04,   1.0,      100,    1,   152.3,    0.0,      0, 0, 0, 0, 0, 0, 0, 0, 0, 0, 0, 1,   0.95,   228.45,   30.46,    45.69,    45.69,    60.92     ],
		[341,    2.71,     0,        1.35,     -0.34,    1.0,      100,    1,   2.71,     0.0,      0, 0, 0, 0, 0, 0, 0, 0, 0, 0, 0, 1,   0.95,   4.06,     0.54,     0.81,     0.81,     1.08      ],
		[342,    85.74,    0,        42.87,    -10.72,   1.0,      100,    1,   85.74,    0.0,      0, 0, 0, 0, 0, 0, 0, 0, 0, 0, 0, 1,   0.95,   128.61,   17.15,    25.72,    25.72,    34.3      ],
		[343,    27.95,    0,        13.98,    -3.49,    1.0,      100,    1,   27.95,    0.0,      0, 0, 0, 0, 0, 0, 0, 0, 0, 0, 0, 1,   0.95,   41.93,    5.59,     8.39,     8.39,     11.18     ],
		[344,    2.15,     0,        1.08,     -0.27,    1.0,      100,    1,   2.15,     0.0,      0, 0, 0, 0, 0, 0, 0, 0, 0, 0, 0, 1,   0.95,   3.23,     0.43,     0.65,     0.65,     0.86      ],
		[345,    4.46,     0,        2.23,     -0.56,    1.0,      100,    1,   4.46,     0.0,      0, 0, 0, 0, 0, 0, 0, 0, 0, 0, 0, 1,   0.95,   6.69,     0.89,     1.34,     1.34,     1.78      ],
		[346,    4.75,     0,        2.37,     -0.59,    1.0,      100,    1,   4.75,     0.0,      0, 0, 0, 0, 0, 0, 0, 0, 0, 0, 0, 1,   0.95,   7.12,     0.95,     1.42,     1.42,     1.9       ],
		[363,    2.95,     0,        1.48,     -0.37,    1.0,      100,    1,   2.95,     0.0,      0, 0, 0, 0, 0, 0, 0, 0, 0, 0, 0, 1,   0.95,   4.43,     0.59,     0.89,     0.89,     1.18      ],
		[400,    88.18,    0,        68.38,    -17.09,   1.0,      100,    1,   136.76,   0.0,      0, 0, 0, 0, 0, 0, 0, 0, 0, 0, 0, 1,   0.95,   205.14,   27.35,    41.03,    41.03,    54.7      ],
		[422,    60.25,    0,        30.12,    -7.53,    1.0,      100,    1,   60.25,    0.0,      0, 0, 0, 0, 0, 0, 0, 0, 0, 0, 0, 1,   0.95,   90.37,    12.05,    18.07,    18.07,    24.1      ],
		[429,    1.0,      0,        0.5,      -0.13,    1.0,      100,    1,   1.0,      0.0,      0, 0, 0, 0, 0, 0, 0, 0, 0, 0, 0, 1,   0.95,   1.5,      0.2,      0.3,      0.3,      0.4       ],
		[435,    136.86,   0,        68.43,    -17.11,   1.0,      100,    1,   136.86,   0.0,      0, 0, 0, 0, 0, 0, 0, 0, 0, 0, 0, 1,   0.95,   205.3,    27.37,    41.06,    41.06,    54.75     ],
		[436,    30.7,     0,        15.35,    -3.84,    1.0,      100,    1,   30.7,     0.0,      0, 0, 0, 0, 0, 0, 0, 0, 0, 0, 0, 1,   0.95,   46.05,    6.14,     9.21,     9.21,     12.28     ],
		[440,    233.12,   0,        116.56,   -29.14,   1.0,      100,    1,   233.12,   0.0,      0, 0, 0, 0, 0, 0, 0, 0, 0, 0, 0, 1,   0.95,   349.68,   46.62,    69.94,    69.94,    93.25     ],
		[441,    243.45,   0,        121.72,   -30.43,   1.0,      100,    1,   243.45,   0.0,      0, 0, 0, 0, 0, 0, 0, 0, 0, 0, 0, 1,   0.95,   365.17,   48.69,    73.03,    73.03,    97.38     ],
		[492,    449.5,    0,        224.75,   -56.19,   1.0,      100,    1,   449.5,    0.0,      0, 0, 0, 0, 0, 0, 0, 0, 0, 0, 0, 1,   0.95,   674.25,   89.9,     134.85,   134.85,   179.8     ],
		[493,    286.62,   0,        143.31,   -35.83,   1.0,      100,    1,   286.62,   0.0,      0, 0, 0, 0, 0, 0, 0, 0, 0, 0, 0, 1,   0.95,   429.93,   57.32,    85.99,    85.99,    114.65    ],
		[496,    227.35,   0,        113.67,   -28.42,   1.0,      100,    1,   227.35,   0.0,      0, 0, 0, 0, 0, 0, 0, 0, 0, 0, 0, 1,   0.95,   341.02,   45.47,    68.2,     68.2,     90.94     ],
		[497,    8.06,     0,        4.03,     -1.01,    1.0,      100,    1,   8.06,     0.0,      0, 0, 0, 0, 0, 0, 0, 0, 0, 0, 0, 1,   0.95,   12.09,    1.61,     2.42,     2.42,     3.22      ],
		[498,    1055.09,  0,        527.55,   -131.89,  1.0,      100,    1,   1055.09,  0.0,      0, 0, 0, 0, 0, 0, 0, 0, 0, 0, 0, 1,   0.95,   1582.64,  211.02,   316.53,   316.53,   422.04    ],
		[502,    215.12,   0,        107.56,   -26.89,   1.0,      100,    1,   215.12,   0.0,      0, 0, 0, 0, 0, 0, 0, 0, 0, 0, 0, 1,   0.95,   322.68,   43.02,    64.54,    64.54,    86.05     ],
		[503,    362.61,   0,        181.31,   -45.33,   1.0,      100,    1,   362.61,   0.0,      0, 0, 0, 0, 0, 0, 0, 0, 0, 0, 0, 1,   0.95,   543.92,   72.52,    108.78,   108.78,   145.04    ],
		[504,    98.78,    0,        49.39,    -12.35,   1.0,      100,    1,   98.78,    0.0,      0, 0, 0, 0, 0, 0, 0, 0, 0, 0, 0, 1,   0.95,   148.17,   19.76,    29.63,    29.63,    39.51     ],
		[505,    0.69,     0,        0.34,     -0.09,    1.0,      100,    1,   0.69,     0.0,      0, 0, 0, 0, 0, 0, 0, 0, 0, 0, 0, 1,   0.95,   1.03,     0.14,     0.21,     0.21,     0.28      ],
		[511,    630.24,   0,        315.12,   -78.78,   1.0,      100,    1,   630.24,   0.0,      0, 0, 0, 0, 0, 0, 0, 0, 0, 0, 0, 1,   0.95,   945.36,   126.05,   189.07,   189.07,   252.1     ],
		[512,    66.32,    0,        33.16,    -8.29,    1.0,      100,    1,   66.32,    0.0,      0, 0, 0, 0, 0, 0, 0, 0, 0, 0, 0, 1,   0.95,   99.48,    13.26,    19.9,     19.9,     26.53     ],
		[557,    71.74,    0,        35.87,    -8.97,    1.0,      100,    1,   71.74,    0.0,      0, 0, 0, 0, 0, 0, 0, 0, 0, 0, 0, 1,   0.95,   107.6,    14.35,    21.52,    21.52,    28.69     ],
		[558,    164.06,   0,        82.03,    -20.51,   1.0,      100,    1,   164.06,   0.0,      0, 0, 0, 0, 0, 0, 0, 0, 0, 0, 0, 1,   0.95,   246.09,   32.81,    49.22,    49.22,    65.62     ],
		[559,    64.3,     0,        32.15,    -8.04,    1.0,      100,    1,   64.3,     0.0,      0, 0, 0, 0, 0, 0, 0, 0, 0, 0, 0, 1,   0.95,   96.46,    12.86,    19.29,    19.29,    25.72     ],
		[560,    354.26,   0,        177.13,   -44.28,   1.0,      100,    1,   354.26,   0.0,      0, 0, 0, 0, 0, 0, 0, 0, 0, 0, 0, 1,   0.95,   531.39,   70.85,    106.28,   106.28,   141.7     ],
		[569,    21.45,    0,        10.73,    -2.68,    1.0,      100,    1,   21.45,    0.0,      0, 0, 0, 0, 0, 0, 0, 0, 0, 0, 0, 1,   0.95,   32.18,    4.29,     6.44,     6.44,     8.58      ],
		[570,    110.64,   0,        55.32,    -13.83,   1.0,      100,    1,   110.64,   0.0,      0, 0, 0, 0, 0, 0, 0, 0, 0, 0, 0, 1,   0.95,   165.96,   22.13,    33.19,    33.19,    44.26     ],
		[8,      0.0,      0,        0.0,      -0.0,     1.0,      100,    1,   0.0,      0.0,      0, 0, 0, 0, 0, 0, 0, 0, 0, 0, 0, 2,   0.95,   0.0,      0.0,      0.0,      0.0,      0.0       ],
		[9,      0.0,      0,        0.0,      -0.0,     1.0,      100,    1,   0.0,      0.0,      0, 0, 0, 0, 0, 0, 0, 0, 0, 0, 0, 2,   0.95,   0.0,      0.0,      0.0,      0.0,      0.0       ],
		[11,     0.0,      0,        0.0,      -0.0,     1.0,      100,    1,   0.0,      0.0,      0, 0, 0, 0, 0, 0, 0, 0, 0, 0, 0, 2,   0.95,   0.0,      0.0,      0.0,      0.0,      0.0       ],
		[17,     0.0,      0,        0.0,      -0.0,     1.0,      100,    1,   0.0,      0.0,      0, 0, 0, 0, 0, 0, 0, 0, 0, 0, 0, 2,   0.95,   0.0,      0.0,      0.0,      0.0,      0.0       ],
		[21,     0.0,      0,        0.0,      -0.0,     1.0,      100,    1,   0.0,      0.0,      0, 0, 0, 0, 0, 0, 0, 0, 0, 0, 0, 2,   0.95,   0.0,      0.0,      0.0,      0.0,      0.0       ],
		[23,     0.0,      0,        0.0,      -0.0,     1.0,      100,    1,   0.0,      0.0,      0, 0, 0, 0, 0, 0, 0, 0, 0, 0, 0, 2,   0.95,   0.0,      0.0,      0.0,      0.0,      0.0       ],
		[25,     0.0,      0,        0.0,      -0.0,     1.0,      100,    1,   0.0,      0.0,      0, 0, 0, 0, 0, 0, 0, 0, 0, 0, 0, 2,   0.95,   0.0,      0.0,      0.0,      0.0,      0.0       ],
		[31,     0.0,      0,        0.0,      -0.0,     1.0,      100,    1,   0.0,      0.0,      0, 0, 0, 0, 0, 0, 0, 0, 0, 0, 0, 2,   0.95,   0.0,      0.0,      0.0,      0.0,      0.0       ],
		[33,     0.0,      0,        0.0,      -0.0,     1.0,      100,    1,   0.0,      0.0,      0, 0, 0, 0, 0, 0, 0, 0, 0, 0, 0, 2,   0.95,   0.0,      0.0,      0.0,      0.0,      0.0       ],
		[38,     0.0,      0,        0.0,      -0.0,     1.0,      100,    1,   0.0,      0.0,      0, 0, 0, 0, 0, 0, 0, 0, 0, 0, 0, 2,   0.95,   0.0,      0.0,      0.0,      0.0,      0.0       ],
		[39,     0.0,      0,        0.0,      -0.0,     1.0,      100,    1,   0.0,      0.0,      0, 0, 0, 0, 0, 0, 0, 0, 0, 0, 0, 2,   0.95,   0.0,      0.0,      0.0,      0.0,      0.0       ],
		[40,     0.0,      0,        0.0,      -0.0,     1.0,      100,    1,   0.0,      0.0,      0, 0, 0, 0, 0, 0, 0, 0, 0, 0, 0, 2,   0.95,   0.0,      0.0,      0.0,      0.0,      0.0       ],
		[41,     0.0,      0,        0.0,      -0.0,     1.0,      100,    1,   0.0,      0.0,      0, 0, 0, 0, 0, 0, 0, 0, 0, 0, 0, 2,   0.95,   0.0,      0.0,      0.0,      0.0,      0.0       ],
		[43,     0.0,      0,        0.0,      -0.0,     1.0,      100,    1,   0.0,      0.0,      0, 0, 0, 0, 0, 0, 0, 0, 0, 0, 0, 2,   0.95,   0.0,      0.0,      0.0,      0.0,      0.0       ],
		[44,     0.0,      0,        0.0,      -0.0,     1.0,      100,    1,   0.0,      0.0,      0, 0, 0, 0, 0, 0, 0, 0, 0, 0, 0, 2,   0.95,   0.0,      0.0,      0.0,      0.0,      0.0       ],
		[45,     0.0,      0,        0.0,      -0.0,     1.0,      100,    1,   0.0,      0.0,      0, 0, 0, 0, 0, 0, 0, 0, 0, 0, 0, 2,   0.95,   0.0,      0.0,      0.0,      0.0,      0.0       ],
		[47,     0.0,      0,        0.0,      -0.0,     1.0,      100,    1,   0.0,      0.0,      0, 0, 0, 0, 0, 0, 0, 0, 0, 0, 0, 2,   0.95,   0.0,      0.0,      0.0,      0.0,      0.0       ],
		[48,     0.0,      0,        0.0,      -0.0,     1.0,      100,    1,   0.0,      0.0,      0, 0, 0, 0, 0, 0, 0, 0, 0, 0, 0, 2,   0.95,   0.0,      0.0,      0.0,      0.0,      0.0       ],
		[49,     0.0,      0,        0.0,      -0.0,     1.0,      100,    1,   0.0,      0.0,      0, 0, 0, 0, 0, 0, 0, 0, 0, 0, 0, 2,   0.95,   0.0,      0.0,      0.0,      0.0,      0.0       ],
		[65,     0.0,      0,        0.0,      -0.0,     1.0,      100,    1,   0.0,      0.0,      0, 0, 0, 0, 0, 0, 0, 0, 0, 0, 0, 2,   0.95,   0.0,      0.0,      0.0,      0.0,      0.0       ],
...
	])
	ppc["branch"] = array([
		[8,      9,      0.00024379,    0.00243793,    0.35006327,    2395,   0, 0, 0,      0, 1, -30,    30,     0.1     ],
		[492,    11,     0.0045562,     0.01822479,    0.04820045,    346,    0, 0, 0,      0, 1, -30,    30,     0.1     ],
		[11,     493,    0.00757174,    0.03028694,    0.0801021,     346,    0, 0, 0,      0, 1, -30,    30,     0.1     ],
		[492,    493,    0.01130413,    0.04521653,    0.11958747,    346,    0, 0, 0,      0, 1, -30,    30,     0.1     ],
		[17,     18,     0.00462352,    0.04623523,    0.9335989,     898,    0, 0, 0,      0, 1, -30,    30,     0.1     ],
		[17,     12,     0.0005602,     0.00560203,    0.1131183,     898,    0, 0, 0,      0, 1, -30,    30,     0.1     ],
		[20,     21,     0.00108334,    0.01083345,    0.09722357,    598,    0, 0, 0,      0, 1, -30,    30,     0.1     ],
		[20,     22,     0.00099339,    0.00993386,    0.3566014,     1197,   0, 0, 0,      0, 1, -30,    30,     0.1     ],
		[497,    23,     0.0005476,     0.00219041,    0.00579315,    346,    0, 0, 0,      0, 1, -30,    30,     0.1     ],
		[25,     22,     0.00035578,    0.00355783,    0.03192931,    598,    0, 0, 0,      0, 1, -30,    30,     0.1     ],
		[8,      21,     0.00098947,    0.00989474,    0.0887992,     598,    0, 0, 0,      0, 1, -30,    30,     0.1     ],
		[31,     32,     0.00299776,    0.02997761,    0.60531903,    898,    0, 0, 0,      0, 1, -30,    30,     0.1     ],
		[32,     33,     0.00167622,    0.01676223,    0.33846928,    898,    0, 0, 0,      0, 1, -30,    30,     0.1     ],
		[37,     10,     0.00240464,    0.0240464,     0.48555384,    898,    0, 0, 0,      0, 1, -30,    30,     0.1     ],
		[10,     38,     0.00068488,    0.0068488,     0.13829351,    898,    0, 0, 0,      0, 1, -30,    30,     0.1     ],
		[37,     38,     0.00143783,    0.01437835,    1.16133176,    1796,   0, 0, 0,      0, 1, -30,    30,     0.1     ],
		[39,     40,     0.00452163,    0.0452163,     0.91302431,    898,    0, 0, 0,      0, 1, -30,    30,     0.1     ],
		[39,     41,     0.0017467,     0.01746699,    0.35269996,    898,    0, 0, 0,      0, 1, -30,    30,     0.1     ],
		[42,     41,     0.00311454,    0.03114543,    0.6289001,     898,    0, 0, 0,      0, 1, -30,    30,     0.1     ],
		[18,     42,     0.00343975,    0.03439751,    0.69456727,    898,    0, 0, 0,      0, 1, -30,    30,     0.1     ],
		[492,    43,     0.00910612,    0.03642446,    0.09633445,    346,    0, 0, 0,      0, 1, -30,    30,     0.1     ],
		[492,    43,     0.00909587,    0.03638347,    0.09622603,    346,    0, 0, 0,      0, 1, -30,    30,     0.1     ],
		[44,     45,     0.00640579,    0.02562314,    0.0677674,     346,    0, 0, 0,      0, 1, -30,    30,     0.1     ],
		[44,     505,    0.00151537,    0.00606149,    0.01603126,    346,    0, 0, 0,      0, 1, -30,    30,     0.1     ],
		[46,     12,     0.00029449,    0.00294494,    0.1057163,     1197,   0, 0, 0,      0, 1, -30,    30,     0.1     ],
		[46,     12,     0.00029482,    0.00294823,    0.10583438,    1197,   0, 0, 0,      0, 1, -30,    30,     0.1     ],
		[47,     48,     0.00053442,    0.00534418,    0.01199019,    299,    0, 0, 0,      0, 1, -30,    30,     0.1     ],
		[31,     33,     0.0013476,     0.01347599,    0.27211226,    898,    0, 0, 0,      0, 1, -30,    30,     0.1     ],
		[71,     72,     0.00088786,    0.00887864,    0.31872128,    1197,   0, 0, 0,      0, 1, -30,    30,     0.1     ],
		[73,     74,     0.00125295,    0.01252955,    0.25300129,    898,    0, 0, 0,      0, 1, -30,    30,     0.1     ],
		[37,     75,     0.00274591,    0.02745914,    0.5544652,     898,    0, 0, 0,      0, 1, -30,    30,     0.1     ],
		[72,     75,     0.00066887,    0.00668871,    0.24010838,    1197,   0, 0, 0,      0, 1, -30,    30,     0.1     ],
		[37,     72,     0.00362221,    0.03622207,    0.73140949,    898,    0, 0, 0,      0, 1, -30,    30,     0.1     ],
		[73,     72,     0.00254751,    0.02547507,    0.51440208,    898,    0, 0, 0,      0, 1, -30,    30,     0.1     ],
		[18,     40,     0.00130277,    0.0130277,     0.26306019,    898,    0, 0, 0,      0, 1, -30,    30,     0.1     ],
		[492,    45,     0.00771758,    0.0308703,     0.18370115,    520,    0, 0, 0,      0, 1, -30,    30,     0.1     ],
		[10,     74,     0.00301674,    0.03016736,    0.60915055,    898,    0, 0, 0,      0, 1, -30,    30,     0.1     ],
		[45,     511,    0.02050843,    0.08203372,    0.05424015,    173,    0, 0, 0,      0, 1, -30,    30,     0.1     ],
		[78,     32,     0.00134588,    0.0134588,     0.48313778,    1197,   0, 0, 0,      0, 1, -30,    30,     0.1     ],
		[79,     80,     0.00076233,    0.00762327,    0.06841417,    598,    0, 0, 0,      0, 1, -30,    30,     0.1     ],
		[79,     80,     0.00076174,    0.00761738,    0.06836134,    598,    0, 0, 0,      0, 1, -30,    30,     0.1     ],
		[81,     79,     0.00215305,    0.02153047,    0.19322279,    598,    0, 0, 0,      0, 1, -30,    30,     0.1     ],
		[81,     79,     0.00215357,    0.02153566,    0.1932694,     598,    0, 0, 0,      0, 1, -30,    30,     0.1     ],
		[42,     98,     0.00061861,    0.00618611,    0.22206638,    1197,   0, 0, 0,      0, 1, -30,    30,     0.1     ],
		[42,     98,     0.00061835,    0.00618352,    0.22197315,    1197,   0, 0, 0,      0, 1, -30,    30,     0.1     ],
		[42,     101,    0.00081653,    0.00816534,    0.29311568,    1197,   0, 0, 0,      0, 1, -30,    30,     0.1     ],
		[102,    42,     0.0012403,     0.01240305,    0.44523901,    1197,   0, 0, 0,      0, 1, -30,    30,     0.1     ],
		[37,     39,     0.00065102,    0.00651021,    0.23370076,    1197,   0, 0, 0,      0, 1, -30,    30,     0.1     ],
		[177,    496,    0.00932496,    0.03729983,    0.09864961,    346,    0, 0, 0,      0, 1, -30,    30,     0.1     ],
		[177,    496,    0.00931603,    0.03726413,    0.09855518,    346,    0, 0, 0,      0, 1, -30,    30,     0.1     ],
		[179,    493,    0.01426992,    0.05707967,    0.15096279,    346,    0, 0, 0,      0, 1, -30,    30,     0.1     ],
		[180,    181,    0.01025686,    0.04102744,    0.10850827,    346,    0, 0, 0,      0, 1, -30,    30,     0.1     ],
		[182,    180,    0.00433818,    0.01735273,    0.04589403,    346,    0, 0, 0,      0, 1, -30,    30,     0.1     ],
		[179,    181,    0.00489306,    0.01957223,    0.05176412,    346,    0, 0, 0,      0, 1, -30,    30,     0.1     ],
		[180,    493,    0.0166914,     0.06676562,    0.17657993,    346,    0, 0, 0,      0, 1, -30,    30,     0.1     ],
		[183,    30,     0.00049645,    0.00496451,    0.17821369,    1197,   0, 0, 0,      0, 1, -30,    30,     0.1     ],
		[183,    21,     0.00025687,    0.00256873,    0.36884485,    2395,   0, 0, 0,      0, 1, -30,    30,     0.1     ],
		[183,    21,     0.00051295,    0.0051295,     0.18413654,    1197,   0, 0, 0,      0, 1, -30,    30,     0.1     ],
		[183,    30,     0.00049609,    0.00496087,    0.17808317,    1197,   0, 0, 0,      0, 1, -30,    30,     0.1     ],
		[504,    192,    0.00015355,    0.00061421,    0.00162446,    346,    0, 0, 0,      0, 1, -30,    30,     0.1     ],
		[504,    192,    0.00015421,    0.00061686,    0.00163145,    346,    0, 0, 0,      0, 1, -30,    30,     0.1     ],
		[217,    98,     0.00012787,    0.00127874,    0.04590362,    1197,   0, 0, 0,      0, 1, -30,    30,     0.1     ],
		[504,    218,    0.00687025,    0.02748099,    0.07268099,    346,    0, 0, 0,      0, 1, -30,    30,     0.1     ],
		[177,    504,    0.01763702,    0.0705481,     0.18658373,    346,    0, 0, 0,      0, 1, -30,    30,     0.1     ],
		[37,     39,     0.00086777,    0.00867775,    0.1752243,     898,    0, 0, 0,      0, 1, -30,    30,     0.1     ],
		[20,     22,     0.00099413,    0.00994131,    0.35686864,    1197,   0, 0, 0,      0, 1, -30,    30,     0.1     ],
		[20,     21,     0.00108314,    0.01083137,    0.09720492,    598,    0, 0, 0,      0, 1, -30,    30,     0.1     ],
		[503,    276,    0.00335322,    0.01341289,    0.03547406,    346,    0, 0, 0,      0, 1, -30,    30,     0.1     ],
		[503,    276,    0.00335372,    0.01341488,    0.03547931,    346,    0, 0, 0,      0, 1, -30,    30,     0.1     ],
		[503,    504,    0.03215471,    0.12861884,    0.34016769,    346,    0, 0, 0,      0, 1, -30,    30,     0.1     ],
		[503,    504,    0.03216364,    0.12865455,    0.34026211,    346,    0, 0, 0,      0, 1, -30,    30,     0.1     ],
...